_pd_phase_name	fcc Al in a box much bigger

_cell_length_a 60.75
_cell_length_b 60.75
_cell_length_c 60.75
_cell_angle_alpha 90
_cell_angle_beta 90
_cell_angle_gamma 90
_symmetry_space_group_name_H-M         'P 1'
_symmetry_Int_Tables_number            1

loop_
_symmetry_equiv_pos_as_xyz
   'x, y, z'

loop_
   _atom_site_label
   _atom_site_occupancy
   _atom_site_fract_x
   _atom_site_fract_y
   _atom_site_fract_z
   _atom_site_adp_type
   _atom_site_B_iso_or_equiv
   _atom_site_type_symbol
   Al1	1.0	0.516666666667	0.516666666667	0.516666666667	Biso	1.000000	Al
   Al2	1.0	0.55	0.55	0.516666666667	Biso	1.000000	Al
   Al3	1.0	0.516666666667	0.55	0.55	Biso	1.000000	Al
   Al4	1.0	0.55	0.516666666667	0.55	Biso	1.000000	Al
   Al5	1.0	0.516666666667	0.516666666667	0.583333333333	Biso	1.000000	Al
   Al6	1.0	0.55	0.55	0.583333333333	Biso	1.000000	Al
   Al7	1.0	0.516666666667	0.55	0.616666683128	Biso	1.000000	Al
   Al8	1.0	0.55	0.516666666667	0.616666683128	Biso	1.000000	Al
   Al9	1.0	0.516666666667	0.516666666667	0.650000016461	Biso	1.000000	Al
   Al10	1.0	0.55	0.55	0.650000016461	Biso	1.000000	Al
   Al11	1.0	0.516666666667	0.55	0.683333349794	Biso	1.000000	Al
   Al12	1.0	0.55	0.516666666667	0.683333349794	Biso	1.000000	Al
   Al13	1.0	0.516666666667	0.583333333333	0.516666666667	Biso	1.000000	Al
   Al14	1.0	0.55	0.616666683128	0.516666666667	Biso	1.000000	Al
   Al15	1.0	0.516666666667	0.616666683128	0.55	Biso	1.000000	Al
   Al16	1.0	0.55	0.583333333333	0.55	Biso	1.000000	Al
   Al17	1.0	0.516666666667	0.583333333333	0.583333333333	Biso	1.000000	Al
   Al18	1.0	0.55	0.616666683128	0.583333333333	Biso	1.000000	Al
   Al19	1.0	0.516666666667	0.616666683128	0.616666683128	Biso	1.000000	Al
   Al20	1.0	0.55	0.583333333333	0.616666683128	Biso	1.000000	Al
   Al21	1.0	0.516666666667	0.583333333333	0.650000016461	Biso	1.000000	Al
   Al22	1.0	0.55	0.616666683128	0.650000016461	Biso	1.000000	Al
   Al23	1.0	0.516666666667	0.616666683128	0.683333349794	Biso	1.000000	Al
   Al24	1.0	0.55	0.583333333333	0.683333349794	Biso	1.000000	Al
   Al25	1.0	0.516666666667	0.650000016461	0.516666666667	Biso	1.000000	Al
   Al26	1.0	0.55	0.683333349794	0.516666666667	Biso	1.000000	Al
   Al27	1.0	0.516666666667	0.683333349794	0.55	Biso	1.000000	Al
   Al28	1.0	0.55	0.650000016461	0.55	Biso	1.000000	Al
   Al29	1.0	0.516666666667	0.650000016461	0.583333333333	Biso	1.000000	Al
   Al30	1.0	0.55	0.683333349794	0.583333333333	Biso	1.000000	Al
   Al31	1.0	0.516666666667	0.683333349794	0.616666683128	Biso	1.000000	Al
   Al32	1.0	0.55	0.650000016461	0.616666683128	Biso	1.000000	Al
   Al33	1.0	0.516666666667	0.650000016461	0.650000016461	Biso	1.000000	Al
   Al34	1.0	0.55	0.683333349794	0.650000016461	Biso	1.000000	Al
   Al35	1.0	0.516666666667	0.683333349794	0.683333349794	Biso	1.000000	Al
   Al36	1.0	0.55	0.650000016461	0.683333349794	Biso	1.000000	Al
   Al37	1.0	0.583333333333	0.516666666667	0.516666666667	Biso	1.000000	Al
   Al38	1.0	0.616666683128	0.55	0.516666666667	Biso	1.000000	Al
   Al39	1.0	0.583333333333	0.55	0.55	Biso	1.000000	Al
   Al40	1.0	0.616666683128	0.516666666667	0.55	Biso	1.000000	Al
   Al41	1.0	0.583333333333	0.516666666667	0.583333333333	Biso	1.000000	Al
   Al42	1.0	0.616666683128	0.55	0.583333333333	Biso	1.000000	Al
   Al43	1.0	0.583333333333	0.55	0.616666683128	Biso	1.000000	Al
   Al44	1.0	0.616666683128	0.516666666667	0.616666683128	Biso	1.000000	Al
   Al45	1.0	0.583333333333	0.516666666667	0.650000016461	Biso	1.000000	Al
   Al46	1.0	0.616666683128	0.55	0.650000016461	Biso	1.000000	Al
   Al47	1.0	0.583333333333	0.55	0.683333349794	Biso	1.000000	Al
   Al48	1.0	0.616666683128	0.516666666667	0.683333349794	Biso	1.000000	Al
   Al49	1.0	0.583333333333	0.583333333333	0.516666666667	Biso	1.000000	Al
   Al50	1.0	0.616666683128	0.616666683128	0.516666666667	Biso	1.000000	Al
   Al51	1.0	0.583333333333	0.616666683128	0.55	Biso	1.000000	Al
   Al52	1.0	0.616666683128	0.583333333333	0.55	Biso	1.000000	Al
   Al53	1.0	0.583333333333	0.583333333333	0.583333333333	Biso	1.000000	Al
   Al54	1.0	0.616666683128	0.616666683128	0.583333333333	Biso	1.000000	Al
   Al55	1.0	0.583333333333	0.616666683128	0.616666683128	Biso	1.000000	Al
   Al56	1.0	0.616666683128	0.583333333333	0.616666683128	Biso	1.000000	Al
   Al57	1.0	0.583333333333	0.583333333333	0.650000016461	Biso	1.000000	Al
   Al58	1.0	0.616666683128	0.616666683128	0.650000016461	Biso	1.000000	Al
   Al59	1.0	0.583333333333	0.616666683128	0.683333349794	Biso	1.000000	Al
   Al60	1.0	0.616666683128	0.583333333333	0.683333349794	Biso	1.000000	Al
   Al61	1.0	0.583333333333	0.650000016461	0.516666666667	Biso	1.000000	Al
   Al62	1.0	0.616666683128	0.683333349794	0.516666666667	Biso	1.000000	Al
   Al63	1.0	0.583333333333	0.683333349794	0.55	Biso	1.000000	Al
   Al64	1.0	0.616666683128	0.650000016461	0.55	Biso	1.000000	Al
   Al65	1.0	0.583333333333	0.650000016461	0.583333333333	Biso	1.000000	Al
   Al66	1.0	0.616666683128	0.683333349794	0.583333333333	Biso	1.000000	Al
   Al67	1.0	0.583333333333	0.683333349794	0.616666683128	Biso	1.000000	Al
   Al68	1.0	0.616666683128	0.650000016461	0.616666683128	Biso	1.000000	Al
   Al69	1.0	0.583333333333	0.650000016461	0.650000016461	Biso	1.000000	Al
   Al70	1.0	0.616666683128	0.683333349794	0.650000016461	Biso	1.000000	Al
   Al71	1.0	0.583333333333	0.683333349794	0.683333349794	Biso	1.000000	Al
   Al72	1.0	0.616666683128	0.650000016461	0.683333349794	Biso	1.000000	Al
   Al73	1.0	0.650000016461	0.516666666667	0.516666666667	Biso	1.000000	Al
   Al74	1.0	0.683333349794	0.55	0.516666666667	Biso	1.000000	Al
   Al75	1.0	0.650000016461	0.55	0.55	Biso	1.000000	Al
   Al76	1.0	0.683333349794	0.516666666667	0.55	Biso	1.000000	Al
   Al77	1.0	0.650000016461	0.516666666667	0.583333333333	Biso	1.000000	Al
   Al78	1.0	0.683333349794	0.55	0.583333333333	Biso	1.000000	Al
   Al79	1.0	0.650000016461	0.55	0.616666683128	Biso	1.000000	Al
   Al80	1.0	0.683333349794	0.516666666667	0.616666683128	Biso	1.000000	Al
   Al81	1.0	0.650000016461	0.516666666667	0.650000016461	Biso	1.000000	Al
   Al82	1.0	0.683333349794	0.55	0.650000016461	Biso	1.000000	Al
   Al83	1.0	0.650000016461	0.55	0.683333349794	Biso	1.000000	Al
   Al84	1.0	0.683333349794	0.516666666667	0.683333349794	Biso	1.000000	Al
   Al85	1.0	0.650000016461	0.583333333333	0.516666666667	Biso	1.000000	Al
   Al86	1.0	0.683333349794	0.616666683128	0.516666666667	Biso	1.000000	Al
   Al87	1.0	0.650000016461	0.616666683128	0.55	Biso	1.000000	Al
   Al88	1.0	0.683333349794	0.583333333333	0.55	Biso	1.000000	Al
   Al89	1.0	0.650000016461	0.583333333333	0.583333333333	Biso	1.000000	Al
   Al90	1.0	0.683333349794	0.616666683128	0.583333333333	Biso	1.000000	Al
   Al91	1.0	0.650000016461	0.616666683128	0.616666683128	Biso	1.000000	Al
   Al92	1.0	0.683333349794	0.583333333333	0.616666683128	Biso	1.000000	Al
   Al93	1.0	0.650000016461	0.583333333333	0.650000016461	Biso	1.000000	Al
   Al94	1.0	0.683333349794	0.616666683128	0.650000016461	Biso	1.000000	Al
   Al95	1.0	0.650000016461	0.616666683128	0.683333349794	Biso	1.000000	Al
   Al96	1.0	0.683333349794	0.583333333333	0.683333349794	Biso	1.000000	Al
   Al97	1.0	0.650000016461	0.650000016461	0.516666666667	Biso	1.000000	Al
   Al98	1.0	0.683333349794	0.683333349794	0.516666666667	Biso	1.000000	Al
   Al99	1.0	0.650000016461	0.683333349794	0.55	Biso	1.000000	Al
   Al100	1.0	0.683333349794	0.650000016461	0.55	Biso	1.000000	Al
   Al101	1.0	0.650000016461	0.650000016461	0.583333333333	Biso	1.000000	Al
   Al102	1.0	0.683333349794	0.683333349794	0.583333333333	Biso	1.000000	Al
   Al103	1.0	0.650000016461	0.683333349794	0.616666683128	Biso	1.000000	Al
   Al104	1.0	0.683333349794	0.650000016461	0.616666683128	Biso	1.000000	Al
   Al105	1.0	0.650000016461	0.650000016461	0.650000016461	Biso	1.000000	Al
   Al106	1.0	0.683333349794	0.683333349794	0.650000016461	Biso	1.000000	Al
   Al107	1.0	0.650000016461	0.683333349794	0.683333349794	Biso	1.000000	Al
   Al108	1.0	0.683333349794	0.650000016461	0.683333349794	Biso	1.000000	Al

